// Source: ../gyrox/m0/m04/runs/phaseC/solve/CL2/constant/solid/thermophysicalProperties @ ef610b9ecb4e7114d42c56f07584a0549f94a29c
FoamFile
{
    version     2.0;
    format      ascii;
    class       dictionary;
    object      thermophysicalProperties;
}

thermoType
{
    type            heSolidThermo;
    mixture         pureMixture;
    transport       constIso;
    thermo          hConst;
    equationOfState rhoConst;
    specie          specie;
    energy          sensibleEnthalpy;
}

mixture
{
    specie          { molWeight 26.98; }
    transport       { kappa 237; }
    thermodynamics  { Hf 0; Cp 900; }
    equationOfState { rho 2700; }
}

