// Source: ../gyrox/m0/m04/runs/phaseC/solve/CL2/constant/hot/g @ ef610b9ecb4e7114d42c56f07584a0549f94a29c
FoamFile
{
    version     2.0;
    format      ascii;
    class       uniformDimensionedVectorField;
    object      g;
}

dimensions      [0 1 -2 0 0 0 0];
value           (0 0 0);   // 강제대류 지배 — 부력 무시, p_rgh == p

